data/ieee_13_aw_edit/IEEE13Nodeckt_Curr_Elem.Txt

CIRCUIT ELEMENT CURRENTS

(Currents into element from indicated bus)

Power Delivery Elements

  Bus Phase    Magnitude, A     Angle      (Real)   +j  (Imag)

ELEMENT = "Vsource.SOURCE"
RG60     1           573.95 /_ -175.0 =    -571.76 +j   -50.071
RG60     2           410.68 /_   65.6 =     169.98 +j    373.86
RG60     3           599.28 /_  -55.2 =     341.66 +j   -492.34
------------
RG60     0           573.95 /_    5.0 =     571.76 +j    50.071
RG60     0           410.68 /_ -114.4 =    -169.98 +j   -373.86
RG60     0           599.28 /_  124.8 =    -341.66 +j    492.34

ELEMENT = "Capacitor.CAP1"
675      1           81.932 /_  116.5 =    -36.616 +j    73.294
675      2           84.818 /_   -1.6 =     84.787 +j   -2.3004
675      3            80.18 /_ -122.7 =    -43.282 +j   -67.495
------------
675      0           81.932 /_  -63.5 =     36.616 +j   -73.294
675      0           84.818 /_  178.4 =    -84.787 +j    2.3004
675      0            80.18 /_   57.3 =     43.282 +j    67.495

ELEMENT = "Capacitor.CAP2"
611      3           40.399 /_ -122.7 =    -21.816 +j   -34.003
------------
611      0           40.399 /_   57.3 =     21.816 +j    34.003

ELEMENT = "Line.RG60632"
RG60     1           573.95 /_    5.0 =     571.76 +j    50.071
RG60     2           410.68 /_ -114.4 =    -169.98 +j   -373.86
RG60     3           599.28 /_  124.8 =    -341.66 +j    492.34
------------
632      1           573.95 /_ -175.0 =    -571.76 +j    -50.07
632      2           410.68 /_   65.6 =     169.98 +j    373.86
632      3           599.28 /_  -55.2 =     341.66 +j   -492.34

ELEMENT = "Line.632670"
632      1           8.2542 /_   -3.3 =     8.2403 +j  -0.47854
632      2           31.129 /_ -121.3 =    -16.184 +j   -26.592
632      3            57.87 /_  117.2 =    -26.445 +j    51.474
------------
670      1           8.2544 /_  176.7 =    -8.2405 +j   0.47888
670      2            31.13 /_   58.7 =     16.185 +j    26.591
670      3            57.87 /_  -62.8 =     26.445 +j   -51.474

ELEMENT = "Line.671680"
671      1       0.00057141 /_  117.3 =  -0.00026214 +j 0.00050773
671      2        0.0005867 /_   -2.0 =  0.00058634 +j -2.0323E-005
671      3       0.00056693 /_ -123.0 =  -0.00030855 +j -0.00047561
------------
680      1      1.8331E-012 /_   82.9 =  2.2737E-013 +j 1.819E-012
680      2      5.9117E-012 /_    0.0 =  5.9117E-012 +j         0
680      3      3.6663E-012 /_   97.1 =  -4.5475E-013 +j 3.638E-012

ELEMENT = "Line.633634"
633      1           338.93 /_    8.3 =     335.41 +j    48.692
633      2           153.83 /_ -105.0 =    -39.798 +j   -148.59
633      3           270.41 /_  125.1 =    -155.59 +j    221.16
------------
634      1           338.93 /_ -171.7 =    -335.41 +j   -48.691
634      2           153.83 /_   75.0 =     39.798 +j    148.59
634      3           270.41 /_  -54.9 =     155.59 +j   -221.16

ELEMENT = "Line.645646"
645      3           271.57 /_  126.0 =    -159.63 +j    219.71
645      2           144.21 /_ -115.2 =    -61.291 +j   -130.54
645      1           228.12 /_    0.5 =     228.11 +j    1.8569
------------
646      3           271.57 /_  -54.0 =     159.63 +j   -219.71
646      2           144.21 /_   64.8 =     61.291 +j    130.54
646      1           228.12 /_ -179.5 =    -228.11 +j   -1.8567

ELEMENT = "Line.692675"
692      1           78.409 /_  155.1 =    -71.105 +j    33.046
692      2           93.862 /_   49.3 =     61.242 +j     71.13
692      3           89.595 /_  -68.0 =     33.556 +j   -83.074
------------
675      1           78.384 /_  -24.9 =     71.091 +j   -33.017
675      2           93.841 /_ -130.7 =    -61.209 +j   -71.131
675      3           89.577 /_  112.0 =    -33.573 +j    83.048

ELEMENT = "Line.671684"
671      1           163.46 /_ -176.4 =    -163.14 +j   -10.176
671      3           151.24 /_  -63.0 =     68.615 +j   -134.78
671      2           90.433 /_   68.5 =     33.107 +j    84.155
------------
684      1           163.46 /_    3.6 =     163.14 +j    10.176
684      3           151.24 /_  117.0 =    -68.615 +j    134.78
684      2           90.433 /_ -111.5 =    -33.107 +j   -84.155

ELEMENT = "Line.684611"
684      3           151.24 /_  -63.0 =     68.615 +j   -134.78
684      2           90.433 /_   68.5 =     33.107 +j    84.155
684      1           228.12 /_ -179.5 =    -228.11 +j   -1.8566
------------
611      3           151.24 /_  117.0 =    -68.615 +j    134.78
611      2           90.433 /_ -111.5 =    -33.107 +j   -84.155
611      1           228.12 /_    0.5 =     228.11 +j    1.8568

ELEMENT = "Line.684652"
684      1             65.5 /_   -7.3 =     64.969 +j   -8.3196
684      2       0.00047006 /_   -1.9 =  0.0004698 +j -1.5751E-005
684      3       0.00045507 /_ -122.9 =  -0.00024702 +j -0.00038219
------------
652      1             65.5 /_  172.7 =     -64.97 +j      8.32
652      2      3.4707E-012 /_ -148.4 =  -2.9559E-012 +j -1.819E-012
652      3       1.875E-012 /_ -104.0 =  -4.5475E-013 +j -1.819E-012

ELEMENT = "Line.671692"
671      1            32.02 /_  140.1 =    -24.557 +j    20.547
671      2           93.862 /_   49.3 =     61.242 +j     71.13
671      3           40.981 /_  -60.4 =     20.245 +j   -35.631
------------
692      1            32.02 /_  -39.9 =     24.557 +j   -20.547
692      2           93.862 /_ -130.7 =    -61.242 +j    -71.13
692      3           40.981 /_  119.6 =    -20.245 +j    35.631

ELEMENT = "Line.646611"
646      1           228.12 /_    0.5 =     228.11 +j    1.8568
646      2           90.433 /_ -111.5 =    -33.107 +j   -84.155
646      3            215.4 /_  128.2 =    -133.35 +j    169.16
------------
611      1           228.12 /_ -179.5 =    -228.11 +j   -1.8568
611      2           90.433 /_   68.5 =     33.107 +j    84.155
611      3            215.4 /_  -51.8 =     133.35 +j   -169.16

ELEMENT = "Line.634675"
634      1           261.04 /_   13.3 =     254.03 +j    60.075
634      2           100.57 /_  -91.0 =    -1.6927 +j   -100.55
634      3           208.31 /_  129.6 =    -132.92 +j    160.39
------------
675      1           261.04 /_ -166.7 =    -254.03 +j   -60.075
675      2           100.57 /_   89.0 =     1.6927 +j    100.55
675      3           208.31 /_  -50.4 =     132.92 +j   -160.39

ELEMENT = "Line.632645"
632      1           228.12 /_    0.5 =     228.11 +j    1.8569
632      2           229.06 /_ -119.8 =    -113.99 +j   -198.68
632      3           271.57 /_  126.0 =    -159.63 +j    219.71
------------
645      1           228.12 /_ -179.5 =    -228.11 +j   -1.8569
645      2           229.06 /_   60.2 =     113.99 +j    198.68
645      3           271.57 /_  -54.0 =     159.63 +j   -219.71

ELEMENT = "Line.632633"
632      1           338.93 /_    8.3 =     335.41 +j    48.692
632      2           153.83 /_ -105.0 =    -39.798 +j   -148.59
632      3           270.41 /_  125.1 =    -155.59 +j    221.16
------------
633      1           338.93 /_ -171.7 =    -335.41 +j   -48.692
633      2           153.83 /_   75.0 =     39.798 +j    148.59
633      3           270.41 /_  -54.9 =     155.59 +j   -221.16

= = = = = = = = = = = = = = = = = = =  = = = = = = = = = = =  = =

Power Conversion Elements

  Bus Phase    Magnitude, A     Angle      (Real)   +j  (Imag)

ELEMENT = "Load.671"
671      1           187.97 /_   -3.2 =     187.69 +j   -10.371
671      2            181.7 /_ -121.3 =    -94.356 +j   -155.28
671      3            192.2 /_  117.5 =    -88.873 +j    170.42
671      0           6.5278 /_ -133.1 =     -4.459 +j   -4.7675

ELEMENT = "Load.634A"
634      1           82.169 /_   -8.0 =     81.376 +j   -11.383
634      0           82.169 /_  172.0 =    -81.376 +j    11.383

ELEMENT = "Load.634B"
634      2           61.315 /_ -128.4 =    -38.108 +j   -48.035
634      0           61.315 /_   51.6 =     38.108 +j    48.035

ELEMENT = "Load.634C"
634      3           64.858 /_  110.5 =    -22.674 +j    60.765
634      0           64.858 /_  -69.5 =     22.674 +j   -60.765

ELEMENT = "Load.645B"
645      2           86.144 /_ -127.7 =    -52.705 +j   -68.139
645      0           86.144 /_   52.3 =     52.705 +j    68.139

ELEMENT = "Load.646BC"
646      2           54.276 /_ -121.3 =    -28.186 +j   -46.383
646      3           56.977 /_  117.5 =     -26.28 +j    50.554
646      0           54.626 /_   -4.4 =     54.466 +j   -4.1716

ELEMENT = "Load.692"
692      3           49.278 /_  105.7 =    -13.313 +j    47.446
692      1           48.195 /_  -15.0 =     46.546 +j   -12.499
692      0           48.226 /_ -133.6 =    -33.233 +j   -34.948

ELEMENT = "Load.675A"
675      1           220.44 /_    5.2 =     219.54 +j    19.797
675      0           220.44 /_ -174.8 =    -219.54 +j   -19.797

ELEMENT = "Load.675B"
675      2            37.07 /_ -133.0 =    -25.272 +j    -27.12
675      0            37.07 /_   47.0 =     25.272 +j     27.12

ELEMENT = "Load.675C"
675      3           155.32 /_  111.2 =    -56.078 +j    144.85
675      0           155.32 /_  -68.8 =     56.078 +j   -144.85

ELEMENT = "Load.611C"
611      3           80.736 /_  122.1 =    -42.924 +j     68.38
611      0           80.736 /_  -57.9 =     42.924 +j    -68.38

ELEMENT = "Load.652"
652      1           65.497 /_   -7.3 =     64.966 +j   -8.3197
652      0           65.497 /_  172.7 =    -64.966 +j    8.3197

ELEMENT = "Load.670A"
670      1            8.254 /_   -3.3 =     8.2401 +j  -0.47886
670      0            8.254 /_  176.7 =    -8.2401 +j   0.47886

ELEMENT = "Load.670B"
670      2            31.13 /_ -121.3 =    -16.186 +j   -26.591
670      0            31.13 /_   58.7 =     16.186 +j    26.591

ELEMENT = "Load.670C"
670      3           57.873 /_  117.2 =    -26.448 +j    51.476
670      0           57.873 /_  -62.8 =     26.448 +j   -51.476

